8
ethane, eclipsed TS demo
C   0.000000   0.000000   0.000000
C   1.540000   0.000000   0.000000
H  -0.540000  -0.935000   0.540000
H  -0.540000   0.935000   0.540000
H  -0.540000   0.000000  -1.080000
H   2.080000   0.935000  -0.540000
H   2.080000  -0.935000  -0.540000
H   2.080000   0.000000   1.080000
