14
conf 1
C      -1.60526981     -0.02841638     -0.41532587
C      -0.49623139     -0.82528656      0.25416487
C       0.90466651     -0.43097654     -0.21455198
C       1.29277438      0.98958702      0.16565433
H      -1.53910203     -0.10199460     -1.50540644
H      -2.58271275     -0.41448582     -0.10858410
H      -1.56435478      1.02848951     -0.13614661
H      -0.57162565     -0.71161365      1.34187892
H      -0.64989109     -1.88869560      0.03520308
H       1.62873370     -1.12202929      0.23329671
H       0.98221410     -0.55127249     -1.30140277
H       2.33294258      1.18272999     -0.11591559
H       1.19931701      1.14710304      1.24478356
H       0.66853923      1.72686137     -0.34759184
