 xtb: 6.6.1 (8d0f1dd)
          10062517403D

  6  6  0     0  0            999 V2000
   -0.1373   -0.0382    1.4600 C   0  0  0  0  0  0  0  0  0  0  0  0
    0.0871    0.8782    2.0188 H   0  0  0  0  0  0  0  0  0  0  0  0
   -1.3891   -0.0016    1.4606 H   0  0  0  0  0  0  0  0  0  0  0  0
    0.0329   -0.9735    2.0063 H   0  0  0  0  0  0  0  0  0  0  0  0
   -3.1325    0.0478    1.6650 Br  0  0  0  0  0  0  0  0  0  0  0  0
    0.3908   -0.0428   -0.1282 Cl  0  0  0  0  0  0  0  0  0  0  0  0
  1  2  1  0  0  0  0
  1  3  1  0  0  0  0
  1  4  1  0  0  0  0
  3  5  1  0  0  0  0
  1  6  2  0  0  0  0
  5  6  1  0  0  0  0
M  CHG  1   1   1
M  END
