14
conf 3
C       1.48523935      0.13281229      0.69200427
C       0.33030309     -0.83257863      0.47445175
C      -0.56214327     -0.45706185     -0.70885610
C      -1.30785813      0.85389251     -0.51265757
H       2.13659012     -0.23506985      1.49134095
H       2.08813620      0.23532518     -0.21578034
H       1.12903683      1.12464232      0.98536172
H       0.74124493     -1.83349138      0.29642439
H      -0.26991081     -0.89464306      1.38966687
H      -1.29686699     -1.25723153     -0.85820112
H       0.03685176     -0.40177842     -1.62530502
H      -1.89527403      0.83754042      0.41078239
H      -1.99480714      1.02372361     -1.34799883
H      -0.62054189      1.70391839     -0.47123337
