14
start geometry
C     -1.5704850316    -0.0341515912    -0.5635153446
C     -0.6720697308     0.3645564962     0.6015169159
C      0.6720493860    -0.3645087797     0.6015111170
C      1.5704987176     0.0341025887    -0.5635157232
H     -2.5386742615     0.4543280057    -0.4779817211
H     -1.7292986800    -1.1105933991    -0.5699574335
H     -1.1295642093     0.2549099771    -1.5138336969
H     -1.1896121397     0.1411318667     1.5377886401
H     -0.4958499694     1.4423818395     0.5711898266
H      0.4958451332    -1.4423441973     0.5713463837
H      1.1896617646    -0.1409485168     1.5376999925
H      1.7293154751     1.1105235436    -0.5701072816
H      1.1295386043    -0.2550525712    -1.5137663375
H      2.5387176292    -0.4543212245    -0.4779667984
