 xtb: 6.6.1 (8d0f1dd)
          08192514023D

 14 13  0     0  0            999 V2000
   -1.5707    0.0341   -0.5634 C   0  0  0  0  0  0  0  0  0  0  0  0
   -0.6720   -0.3646    0.6014 C   0  0  0  0  0  0  0  0  0  0  0  0
    0.6720    0.3647    0.6014 C   0  0  0  0  0  0  0  0  0  0  0  0
    1.5707   -0.0342   -0.5634 C   0  0  0  0  0  0  0  0  0  0  0  0
   -1.1296   -0.2545   -1.5138 H   0  0  0  0  0  0  0  0  0  0  0  0
   -1.7299    1.1105   -0.5695 H   0  0  0  0  0  0  0  0  0  0  0  0
   -2.5386   -0.4548   -0.4779 H   0  0  0  0  0  0  0  0  0  0  0  0
   -0.4955   -1.4424    0.5709 H   0  0  0  0  0  0  0  0  0  0  0  0
   -1.1895   -0.1414    1.5378 H   0  0  0  0  0  0  0  0  0  0  0  0
    1.1895    0.1417    1.5378 H   0  0  0  0  0  0  0  0  0  0  0  0
    0.4955    1.4425    0.5707 H   0  0  0  0  0  0  0  0  0  0  0  0
    2.5387    0.4547   -0.4781 H   0  0  0  0  0  0  0  0  0  0  0  0
    1.1296    0.2542   -1.5139 H   0  0  0  0  0  0  0  0  0  0  0  0
    1.7299   -1.1106   -0.5693 H   0  0  0  0  0  0  0  0  0  0  0  0
  1  2  1  0  0  0  0
  2  3  1  0  0  0  0
  3  4  1  0  0  0  0
  1  5  1  0  0  0  0
  1  6  1  0  0  0  0
  1  7  1  0  0  0  0
  2  8  1  0  0  0  0
  2  9  1  0  0  0  0
  3 10  1  0  0  0  0
  3 11  1  0  0  0  0
  4 12  1  0  0  0  0
  4 13  1  0  0  0  0
  4 14  1  0  0  0  0
M  END
