6
start geometry
C     -0.7366793400    -0.0166905090     1.4309685930
H     -0.4141482150     0.8683027100     1.9593251740
H     -1.2788182720    -0.0961458290     0.5002848500
H     -0.2200274530    -0.9007390500     1.7743765230
Br    -2.4272815930     0.1312020210     2.4892652540
Cl     0.9289147430    -0.1159910890     0.3282738270
