14
input for CREST
C       0.91630000     -0.01028000      0.06575000
C       2.43529000     -0.00644000      0.07785000
C       2.97970000      0.40600000      1.44408000
C       4.49919000      0.41149000      1.45542000
H       0.54455000     -0.30777000     -0.91960000
H       0.52017000      0.98520000      0.29218000
H       0.52029000     -0.71393000      0.80535000
H       2.80078000      0.68259000     -0.69258000
H       2.80089000     -1.00680000     -0.18245000
H       2.61526000     -0.28396000      2.21412000
H       2.61305000      1.40574000      1.70484000
H       4.89563000     -0.58320000      1.22819000
H       4.87038000      0.70903000      2.44102000
H       4.89331000      1.11597000      0.71609000
